dataConverter/IEEE_39_VLN_Node.Txt

NODE-GROUND VOLTAGES BY BUS & NODE

Bus  Node    V (kV)    Angle      p.u.   Base kV

B31  1       12.473 /_    0.0     0.982    22.000
   - 2       12.473 /_ -120.0     0.982    22.000
   - 3       12.473 /_  120.0     0.982    22.000
B2 . 1       3.3231 /_  -57.1   0.26162    22.000
   - 2       3.3231 /_ -177.1   0.26162    22.000
   - 3       3.3231 /_   62.9   0.26162    22.000
B1 . 1       3.5791 /_  -59.4   0.28178    22.000
   - 2       3.5791 /_ -179.4   0.28178    22.000
   - 3       3.5791 /_   60.6   0.28178    22.000
B39  1       3.6753 /_  -60.5   0.28936    22.000
   - 2       3.6753 /_  179.5   0.28936    22.000
   - 3       3.6753 /_   59.5   0.28936    22.000
B3 . 1       3.3833 /_  -50.7   0.26636    22.000
   - 2       3.3833 /_ -170.7   0.26636    22.000
   - 3       3.3833 /_   69.3   0.26636    22.000
B25  1       3.0969 /_  -59.5   0.24381    22.000
   - 2       3.0969 /_ -179.5   0.24381    22.000
   - 3       3.0969 /_   60.5   0.24381    22.000
B4 . 1       4.3405 /_  -33.6   0.34173    22.000
   - 2       4.3405 /_ -153.6   0.34173    22.000
   - 3       4.3405 /_   86.4   0.34173    22.000
B18  1       2.9718 /_  -56.2   0.23397    22.000
   - 2       2.9718 /_ -176.2   0.23397    22.000
   - 3       2.9718 /_   63.8   0.23397    22.000
B5 . 1       5.4713 /_  -24.1   0.43075    22.000
   - 2       5.4713 /_ -144.1   0.43075    22.000
   - 3       5.4713 /_   95.9   0.43075    22.000
B14  1       4.0835 /_  -33.2   0.32149    22.000
   - 2       4.0835 /_ -153.2   0.32149    22.000
   - 3       4.0835 /_   86.8   0.32149    22.000
B6 . 1       5.7676 /_  -21.9   0.45408    22.000
   - 2       5.7676 /_ -141.9   0.45408    22.000
   - 3       5.7676 /_   98.1   0.45408    22.000
B8 . 1       5.2686 /_  -27.8   0.41479    22.000
   - 2       5.2686 /_ -147.8   0.41479    22.000
   - 3       5.2686 /_   92.2   0.41479    22.000
B7 . 1       5.4115 /_  -26.2   0.42604    22.000
   - 2       5.4115 /_ -146.2   0.42604    22.000
   - 3       5.4115 /_   93.8   0.42604    22.000
B11  1       5.0414 /_  -24.6   0.39691    22.000
   - 2       5.0414 /_ -144.6   0.39691    22.000
   - 3       5.0414 /_   95.4   0.39691    22.000
B9 . 1       4.1847 /_  -44.2   0.32946    22.000
   - 2       4.1847 /_ -164.2   0.32946    22.000
   - 3       4.1847 /_   75.8   0.32946    22.000
B10  1       4.7802 /_  -26.2   0.37634    22.000
   - 2       4.7802 /_ -146.2   0.37634    22.000
   - 3       4.7802 /_   93.8   0.37634    22.000
B13  1       4.5216 /_  -27.9   0.35598    22.000
   - 2       4.5216 /_ -147.9   0.35598    22.000
   - 3       4.5216 /_   92.1   0.35598    22.000
B15  1       2.8527 /_  -50.2   0.22459    22.000
   - 2       2.8527 /_ -170.2   0.22459    22.000
   - 3       2.8527 /_   69.8   0.22459    22.000
B16  1        2.478 /_  -59.8   0.19509    22.000
   - 2        2.478 /_ -179.8   0.19509    22.000
   - 3        2.478 /_   60.2   0.19509    22.000
B17  1         2.74 /_  -59.3   0.21572    22.000
   - 2         2.74 /_ -179.3   0.21572    22.000
   - 3         2.74 /_   60.7   0.21572    22.000
B19  1        1.368 /_  -75.1    0.1077    22.000
   - 2        1.368 /_  164.9    0.1077    22.000
   - 3        1.368 /_   44.9    0.1077    22.000
B21  1       2.4264 /_  -63.3   0.19103    22.000
   - 2       2.4264 /_  176.7   0.19103    22.000
   - 3       2.4264 /_   56.7   0.19103    22.000
B24  1       2.4824 /_  -61.7   0.19544    22.000
   - 2       2.4824 /_  178.3   0.19544    22.000
   - 3       2.4824 /_   58.3   0.19544    22.000
B27  1       2.7764 /_  -65.6   0.21858    22.000
   - 2       2.7764 /_  174.4   0.21858    22.000
   - 3       2.7764 /_   54.4   0.21858    22.000
B22  1       2.4245 /_  -64.3   0.19088    22.000
   - 2       2.4245 /_  175.7   0.19088    22.000
   - 3       2.4245 /_   55.7   0.19088    22.000
B23  1       2.4183 /_  -65.0   0.19039    22.000
   - 2       2.4183 /_  175.0   0.19039    22.000
   - 3       2.4183 /_   55.0   0.19039    22.000
B26  1        2.859 /_  -68.0   0.22509    22.000
   - 2        2.859 /_  172.0   0.22509    22.000
   - 3        2.859 /_   52.0   0.22509    22.000
B28  1       2.8155 /_  -77.0   0.22166    22.000
   - 2       2.8155 /_  163.0   0.22166    22.000
   - 3       2.8155 /_   43.0   0.22166    22.000
B29  1       2.8154 /_  -77.7   0.22165    22.000
   - 2       2.8154 /_  162.3   0.22165    22.000
   - 3       2.8154 /_   42.3   0.22165    22.000
B12  1       3.8918 /_  -27.2    0.3064    22.000
   - 2       3.8918 /_ -147.2    0.3064    22.000
   - 3       3.8918 /_   92.8    0.3064    22.000
B32  1       4.4674 /_  -26.2   0.35172    22.000
   - 2       4.4674 /_ -146.2   0.35172    22.000
   - 3       4.4674 /_   93.8   0.35172    22.000
B33  1       1.2785 /_  -75.1   0.10066    22.000
   - 2       1.2785 /_  164.9   0.10066    22.000
   - 3       1.2785 /_   44.9   0.10066    22.000
B20  1      0.78925 /_ -119.3  0.062138    22.000
   - 2      0.78925 /_  120.7  0.062138    22.000
   - 3      0.78925 /_    0.7  0.062138    22.000
B34  1      0.78221 /_ -119.3  0.061583    22.000
   - 2      0.78221 /_  120.7  0.061583    22.000
   - 3      0.78221 /_    0.7  0.061583    22.000
B35  1       2.3653 /_  -64.3   0.18622    22.000
   - 2       2.3653 /_  175.7   0.18622    22.000
   - 3       2.3653 /_   55.7   0.18622    22.000
B36  1       2.4183 /_  -65.0   0.19039    22.000
   - 2       2.4183 /_  175.0   0.19039    22.000
   - 3       2.4183 /_   55.0   0.19039    22.000
B37  1       3.0213 /_  -59.5   0.23787    22.000
   - 2       3.0213 /_ -179.5   0.23787    22.000
   - 3       3.0213 /_   60.5   0.23787    22.000
B30  1        3.242 /_  -57.1   0.25524    22.000
   - 2        3.242 /_ -177.1   0.25524    22.000
   - 3        3.242 /_   62.9   0.25524    22.000
B38  1       2.7467 /_  -77.7   0.21625    22.000
   - 2       2.7467 /_  162.3   0.21625    22.000
   - 3       2.7467 /_   42.3   0.21625    22.000
